/*--------------------------------*- C++ -*----------------------------------*\
  =========                 |
  \\      /  F ield         | OpenFOAM: The Open Source CFD Toolbox
   \\    /   O peration     | Website:  https://openfoam.org
    \\  /    A nd           | Version:  6
     \\/     M anipulation  |
\*---------------------------------------------------------------------------*/
FoamFile
{
    version     2.0;
    format      ascii;
    class       volScalarField;
    location    "0";
    object      p;
}
// * * * * * * * * * * * * * * * * * * * * * * * * * * * * * * * * * * * * * //

dimensions      [0 2 -2 0 0 0 0];

internalField   uniform 0;

boundaryField
{
    walls
    {
        type            fixedFluxPressure;
        gradient        uniform 0;
        value           uniform 0;
    }
    frontAndBack
    {
        type            empty;
    }
    Inlets
    {
        type            fixedFluxPressure;
        gradient        uniform 0;
        value           uniform 0;
    }
    Outlets
    {
        type            totalPressure;
        rho             rho;
        psi             none;
        gamma           1;
        p0              uniform 0;
        value           uniform 0;
    }
    HPOutlet
    {
        type            fixedValue;
        value           uniform 0.01;
    }
    PSInlet
    {
        type            fixedFluxPressure;
        gradient        uniform 0;
        value           uniform 0;
    }
}


// ************************************************************************* //
